@<TRIPOS>MOLECULE
methane.xyz
 5 4 0 0 0
SMALL
GASTEIGER

@<TRIPOS>ATOM
      1 C          -0.7741    0.1305   -1.8145 C.3     1  LIG1       -0.0776
      2 H           0.2959    0.1305   -1.8145 H       1  LIG1        0.0194
      3 H          -1.2176   -0.5009   -2.5558 H       1  LIG1        0.0194
      4 H          -1.1292    1.1317   -1.9423 H       1  LIG1        0.0194
      5 H          -1.0697   -0.2722   -0.8682 H       1  LIG1        0.0194
@<TRIPOS>BOND
     1     3     1    1
     2     4     1    1
     3     1     2    1
     4     1     5    1
